Circuit: * C:\Users\feder\Desktop\LTSpice\Leva_et_al_circuit_schematic\Leva_et_al_TBME_equivalent_circuit_schematic.asc

Direct Newton iteration for .op point succeeded.

Date: Thu May 11 15:28:50 2023
Total elapsed time: 9.327 seconds.

tnom = 27
temp = 27
method = modified trap
totiter = 122018
traniter = 122014
tranpoints = 29514
accept = 24543
rejected = 4971
matrix size = 179
fillins = 164
solver = Normal
Thread vector: 93.6/33.1[7] 3.0/1.9[6] 22.8/8.7[7] 1.5/4.8[1]  2592/500
Matrix Compiler1: 15.42 KB object code size  25.5/10.8/[2.2]
Matrix Compiler2: 15.12 KB object code size  9.9/11.6/[1.4]

