Circuit: * C:\Users\feder\Desktop\LTSpice\Leva_et_al_circuit_schematic\Leva_et_al_equivalent_circuit_schematic.asc

Direct Newton iteration for .op point succeeded.
