Circuit: * C:\Users\feder\Desktop\LTSpice\Leva_et_al_circuit_schematic\Leva_et_al_equivalent_circuit_schematic.asc

Direct Newton iteration for .op point succeeded.

Date: Thu May 11 10:35:08 2023
Total elapsed time: 12.328 seconds.

tnom = 27
temp = 27
method = modified trap
totiter = 122018
traniter = 122014
tranpoints = 29514
accept = 24543
rejected = 4971
matrix size = 179
fillins = 164
solver = Normal
Thread vector: 180.4/122.0[7] 4.1/56.8[1] 22.5/26.8[1] 2.1/131.3[1]  2592/500
Matrix Compiler1: 15.42 KB object code size  21.5/16.1/[2.2]
Matrix Compiler2: 15.12 KB object code size  11.9/12.0/[2.5]

